Circuit: * C:\Users\arturo.popoli2\Documents\Electrical_eng\LTspice_examples\.meas directive\ac_analysis.asc


pg1_db: re(v(b)*conj(i(vg1)))=(-18.9445dB,180°) at 50
pg1: 10**(pg1_db/20)=(-0.112921dB,0°) at 50


Date: Tue Aug 23 14:33:54 2022
Total elapsed time: 0.302 seconds.

tnom = 27
temp = 27
method = trap
totiter = 0
traniter = 0
tranpoints = 0
accept = 0
rejected = 0
matrix size = 6
fillins = 5
solver = Normal

